data_alpha_CONTCAR
_audit_creation_date              2024-12-06
_audit_creation_method            'Materials Studio'
_symmetry_space_group_name_H-M    'P1'
_symmetry_Int_Tables_number       1
_symmetry_cell_setting            triclinic
loop_
_symmetry_equiv_pos_as_xyz
  x,y,z
_cell_length_a                    18.9174
_cell_length_b                    22.0806
_cell_length_c                    28.1610
_cell_angle_alpha                 90.0000
_cell_angle_beta                  108.2190
_cell_angle_gamma                 90.0000
loop_
_atom_site_label
_atom_site_type_symbol
_atom_site_fract_x
_atom_site_fract_y
_atom_site_fract_z
_atom_site_U_iso_or_equiv
_atom_site_adp_type
_atom_site_occupancy
I1     I     0.46909   0.62037   0.05236   0.00000  Uiso   1.00
I2     I     0.38584   0.79177   0.19516   0.00000  Uiso   1.00
I3     I     0.00385   0.53902   0.18476   0.00000  Uiso   1.00
N4     N     0.44118   0.66441   0.19193   0.00000  Uiso   1.00
N5     N     0.42400   0.71100   0.11895   0.00000  Uiso   1.00
H6     H     0.44264   0.65753   0.22952   0.00000  Uiso   1.00
C7     C     0.46116   0.62361   0.16112   0.00000  Uiso   1.00
C8     C     0.41955   0.71601   0.16513   0.00000  Uiso   1.00
C9     C     0.45011   0.65333   0.11604   0.00000  Uiso   1.00
I10    I     0.03091   0.37963   0.44762   0.00000  Uiso   1.00
I11    I     0.11415   0.20813   0.30495   0.00000  Uiso   1.00
I12    I     0.49625   0.46102   0.31516   0.00000  Uiso   1.00
N13    N     0.05885   0.33557   0.30805   0.00000  Uiso   1.00
N14    N     0.07601   0.28901   0.38103   0.00000  Uiso   1.00
H15    H     0.05736   0.34243   0.27046   0.00000  Uiso   1.00
C16    C     0.03889   0.37640   0.33885   0.00000  Uiso   1.00
C17    C     0.08045   0.28397   0.33485   0.00000  Uiso   1.00
C18    C     0.04992   0.34669   0.38393   0.00000  Uiso   1.00
I19    I     0.28093   0.12034   0.44761   0.00000  Uiso   1.00
I20    I     0.36414   0.29187   0.30494   0.00000  Uiso   1.00
I21    I     0.24631   0.03893   0.31515   0.00000  Uiso   1.00
N22    N     0.30885   0.16442   0.30804   0.00000  Uiso   1.00
N23    N     0.32594   0.21098   0.38101   0.00000  Uiso   1.00
H24    H     0.30740   0.15757   0.27046   0.00000  Uiso   1.00
C25    C     0.28889   0.12357   0.33883   0.00000  Uiso   1.00
C26    C     0.33041   0.21602   0.33485   0.00000  Uiso   1.00
C27    C     0.29989   0.15328   0.38392   0.00000  Uiso   1.00
I28    I     0.21908   0.87964   0.05238   0.00000  Uiso   1.00
I29    I     0.13587   0.70815   0.19507   0.00000  Uiso   1.00
I30    I     0.25381   0.96099   0.18481   0.00000  Uiso   1.00
N31    N     0.19114   0.83559   0.19194   0.00000  Uiso   1.00
N32    N     0.17402   0.78902   0.11897   0.00000  Uiso   1.00
H33    H     0.19260   0.84247   0.22953   0.00000  Uiso   1.00
C34    C     0.21112   0.87640   0.16115   0.00000  Uiso   1.00
C35    C     0.16955   0.78399   0.16514   0.00000  Uiso   1.00
C36    C     0.20010   0.84669   0.11606   0.00000  Uiso   1.00
I37    I     0.38738   0.55919   0.40992   0.00000  Uiso   1.00
I38    I     0.30418   0.57118   0.25991   0.00000  Uiso   1.00
I39    I     0.08561   0.72250   0.33208   0.00000  Uiso   1.00
N40    N     0.44491   0.64779   0.29093   0.00000  Uiso   1.00
N41    N     0.48900   0.64247   0.37415   0.00000  Uiso   1.00
H42    H     0.02499   0.64943   0.41156   0.00000  Uiso   1.00
C43    C     0.49838   0.66576   0.33191   0.00000  Uiso   1.00
C44    C     0.39893   0.61109   0.30792   0.00000  Uiso   1.00
C45    C     0.42557   0.60714   0.35970   0.00000  Uiso   1.00
I46    I     0.11262   0.44082   0.09007   0.00000  Uiso   1.00
I47    I     0.19581   0.42881   0.24007   0.00000  Uiso   1.00
I48    I     0.41434   0.27754   0.16789   0.00000  Uiso   1.00
N49    N     0.05507   0.35221   0.20904   0.00000  Uiso   1.00
N50    N     0.01099   0.35756   0.12582   0.00000  Uiso   1.00
H51    H     0.47500   0.35057   0.08841   0.00000  Uiso   1.00
C52    C     0.00160   0.33424   0.16806   0.00000  Uiso   1.00
C53    C     0.10104   0.38893   0.19205   0.00000  Uiso   1.00
C54    C     0.07441   0.39290   0.14027   0.00000  Uiso   1.00
I55    I     0.36256   0.05915   0.09007   0.00000  Uiso   1.00
I56    I     0.44588   0.07118   0.24011   0.00000  Uiso   1.00
I57    I     0.16445   0.22253   0.16798   0.00000  Uiso   1.00
N58    N     0.30516   0.14782   0.20907   0.00000  Uiso   1.00
N59    N     0.26101   0.14245   0.12586   0.00000  Uiso   1.00
H60    H     0.22502   0.14942   0.08844   0.00000  Uiso   1.00
C61    C     0.25168   0.16580   0.16810   0.00000  Uiso   1.00
C62    C     0.35109   0.11105   0.19208   0.00000  Uiso   1.00
C63    C     0.32440   0.10707   0.14030   0.00000  Uiso   1.00
I64    I     0.13735   0.94078   0.40993   0.00000  Uiso   1.00
I65    I     0.05410   0.92897   0.26003   0.00000  Uiso   1.00
I66    I     0.33561   0.77757   0.33204   0.00000  Uiso   1.00
N67    N     0.19488   0.85229   0.29093   0.00000  Uiso   1.00
N68    N     0.23901   0.85756   0.37415   0.00000  Uiso   1.00
H69    H     0.27502   0.85059   0.41156   0.00000  Uiso   1.00
C70    C     0.24837   0.83430   0.33189   0.00000  Uiso   1.00
C71    C     0.14890   0.88897   0.30795   0.00000  Uiso   1.00
C72    C     0.17558   0.89289   0.35973   0.00000  Uiso   1.00
I73    I     0.02826   0.78850   0.47049   0.00000  Uiso   1.00
I74    I     0.24588   0.61090   0.10729   0.00000  Uiso   1.00
I75    I     0.13973   0.53162   0.47591   0.00000  Uiso   1.00
N76    N     0.13926   0.70418   0.04259   0.00000  Uiso   1.00
N77    N     0.08253   0.66047   0.46926   0.00000  Uiso   1.00
H78    H     0.15321   0.73684   0.07194   0.00000  Uiso   1.00
C79    C     0.16676   0.64584   0.04530   0.00000  Uiso   1.00
C80    C     0.13096   0.61939   0.49944   0.00000  Uiso   1.00
C81    C     0.08904   0.71087   0.49640   0.00000  Uiso   1.00
I82    I     0.47134   0.21120   0.02943   0.00000  Uiso   1.00
I83    I     0.25419   0.38918   0.39275   0.00000  Uiso   1.00
I84    I     0.36025   0.46813   0.02436   0.00000  Uiso   1.00
N85    N     0.36076   0.29582   0.45737   0.00000  Uiso   1.00
N86    N     0.41748   0.33939   0.03075   0.00000  Uiso   1.00
H87    H     0.34682   0.26317   0.42802   0.00000  Uiso   1.00
C88    C     0.33330   0.35418   0.45471   0.00000  Uiso   1.00
C89    C     0.36910   0.38053   0.00062   0.00000  Uiso   1.00
C90    C     0.41093   0.28903   0.00357   0.00000  Uiso   1.00
I91    I     0.22201   0.28834   0.02965   0.00000  Uiso   1.00
I92    I     0.00416   0.11087   0.39276   0.00000  Uiso   1.00
I93    I     0.11027   0.03184   0.02434   0.00000  Uiso   1.00
N94    N     0.11082   0.20421   0.45743   0.00000  Uiso   1.00
N95    N     0.16748   0.16053   0.03077   0.00000  Uiso   1.00
H96    H     0.09691   0.23685   0.42807   0.00000  Uiso   1.00
C97    C     0.08325   0.14588   0.45474   0.00000  Uiso   1.00
C98    C     0.11903   0.11947   0.00062   0.00000  Uiso   1.00
C99    C     0.16102   0.21090   0.00362   0.00000  Uiso   1.00
I100   I     0.27796   0.71170   0.47034   0.00000  Uiso   1.00
I101   I     0.49587   0.88919   0.10727   0.00000  Uiso   1.00
I102   I     0.38975   0.96816   0.47564   0.00000  Uiso   1.00
N103   N     0.38918   0.79586   0.04260   0.00000  Uiso   1.00
N104   N     0.33253   0.83952   0.46925   0.00000  Uiso   1.00
H105   H     0.40312   0.76321   0.07194   0.00000  Uiso   1.00
C106   C     0.41676   0.85419   0.04529   0.00000  Uiso   1.00
C107   C     0.38098   0.88058   0.49940   0.00000  Uiso   1.00
C108   C     0.33897   0.78915   0.49640   0.00000  Uiso   1.00
I109   I     0.96909   0.62037   0.05236   0.00000  Uiso   1.00
I110   I     0.88584   0.79177   0.19516   0.00000  Uiso   1.00
I111   I     0.50385   0.53902   0.18477   0.00000  Uiso   1.00
N112   N     0.94118   0.66441   0.19193   0.00000  Uiso   1.00
N113   N     0.92400   0.71100   0.11895   0.00000  Uiso   1.00
H114   H     0.94264   0.65753   0.22952   0.00000  Uiso   1.00
C115   C     0.96116   0.62361   0.16112   0.00000  Uiso   1.00
C116   C     0.91955   0.71601   0.16513   0.00000  Uiso   1.00
C117   C     0.95011   0.65333   0.11604   0.00000  Uiso   1.00
I118   I     0.53091   0.37963   0.44762   0.00000  Uiso   1.00
I119   I     0.61415   0.20813   0.30495   0.00000  Uiso   1.00
I120   I     0.99625   0.46102   0.31516   0.00000  Uiso   1.00
N121   N     0.55885   0.33557   0.30805   0.00000  Uiso   1.00
N122   N     0.57601   0.28901   0.38103   0.00000  Uiso   1.00
H123   H     0.55736   0.34243   0.27046   0.00000  Uiso   1.00
C124   C     0.53889   0.37640   0.33885   0.00000  Uiso   1.00
C125   C     0.58045   0.28397   0.33485   0.00000  Uiso   1.00
C126   C     0.54992   0.34669   0.38393   0.00000  Uiso   1.00
I127   I     0.78093   0.12034   0.44761   0.00000  Uiso   1.00
I128   I     0.86414   0.29187   0.30494   0.00000  Uiso   1.00
I129   I     0.74631   0.03893   0.31515   0.00000  Uiso   1.00
N130   N     0.80885   0.16442   0.30804   0.00000  Uiso   1.00
N131   N     0.82594   0.21098   0.38101   0.00000  Uiso   1.00
H132   H     0.80740   0.15757   0.27046   0.00000  Uiso   1.00
C133   C     0.78889   0.12357   0.33883   0.00000  Uiso   1.00
C134   C     0.83041   0.21602   0.33485   0.00000  Uiso   1.00
C135   C     0.79989   0.15328   0.38392   0.00000  Uiso   1.00
I136   I     0.71908   0.87964   0.05238   0.00000  Uiso   1.00
I137   I     0.63587   0.70815   0.19507   0.00000  Uiso   1.00
I138   I     0.75381   0.96099   0.18481   0.00000  Uiso   1.00
N139   N     0.69114   0.83559   0.19194   0.00000  Uiso   1.00
N140   N     0.67402   0.78902   0.11897   0.00000  Uiso   1.00
H141   H     0.69260   0.84247   0.22953   0.00000  Uiso   1.00
C142   C     0.71112   0.87640   0.16115   0.00000  Uiso   1.00
C143   C     0.66955   0.78399   0.16514   0.00000  Uiso   1.00
C144   C     0.70010   0.84669   0.11606   0.00000  Uiso   1.00
I145   I     0.88738   0.55919   0.40992   0.00000  Uiso   1.00
I146   I     0.80418   0.57118   0.25991   0.00000  Uiso   1.00
I147   I     0.58561   0.72250   0.33208   0.00000  Uiso   1.00
N148   N     0.94491   0.64779   0.29093   0.00000  Uiso   1.00
N149   N     0.98900   0.64247   0.37415   0.00000  Uiso   1.00
H150   H     0.52499   0.64943   0.41156   0.00000  Uiso   1.00
C151   C     0.99838   0.66576   0.33191   0.00000  Uiso   1.00
C152   C     0.89893   0.61109   0.30792   0.00000  Uiso   1.00
C153   C     0.92557   0.60714   0.35970   0.00000  Uiso   1.00
I154   I     0.61262   0.44082   0.09007   0.00000  Uiso   1.00
I155   I     0.69581   0.42881   0.24007   0.00000  Uiso   1.00
I156   I     0.91434   0.27754   0.16789   0.00000  Uiso   1.00
N157   N     0.55507   0.35221   0.20904   0.00000  Uiso   1.00
N158   N     0.51099   0.35756   0.12582   0.00000  Uiso   1.00
H159   H     0.97500   0.35057   0.08841   0.00000  Uiso   1.00
C160   C     0.50160   0.33424   0.16806   0.00000  Uiso   1.00
C161   C     0.60104   0.38893   0.19205   0.00000  Uiso   1.00
C162   C     0.57441   0.39290   0.14027   0.00000  Uiso   1.00
I163   I     0.86256   0.05915   0.09007   0.00000  Uiso   1.00
I164   I     0.94588   0.07118   0.24011   0.00000  Uiso   1.00
I165   I     0.66445   0.22253   0.16798   0.00000  Uiso   1.00
N166   N     0.80516   0.14782   0.20907   0.00000  Uiso   1.00
N167   N     0.76101   0.14245   0.12586   0.00000  Uiso   1.00
H168   H     0.72502   0.14942   0.08844   0.00000  Uiso   1.00
C169   C     0.75168   0.16580   0.16810   0.00000  Uiso   1.00
C170   C     0.85109   0.11105   0.19208   0.00000  Uiso   1.00
C171   C     0.82440   0.10707   0.14030   0.00000  Uiso   1.00
I172   I     0.63735   0.94078   0.40993   0.00000  Uiso   1.00
I173   I     0.55410   0.92897   0.26003   0.00000  Uiso   1.00
I174   I     0.83561   0.77757   0.33204   0.00000  Uiso   1.00
N175   N     0.69488   0.85229   0.29093   0.00000  Uiso   1.00
N176   N     0.73901   0.85756   0.37415   0.00000  Uiso   1.00
H177   H     0.77502   0.85059   0.41156   0.00000  Uiso   1.00
C178   C     0.74837   0.83430   0.33189   0.00000  Uiso   1.00
C179   C     0.64890   0.88897   0.30795   0.00000  Uiso   1.00
C180   C     0.67558   0.89289   0.35973   0.00000  Uiso   1.00
I181   I     0.52826   0.78850   0.47049   0.00000  Uiso   1.00
I182   I     0.74588   0.61090   0.10729   0.00000  Uiso   1.00
I183   I     0.63973   0.53162   0.47591   0.00000  Uiso   1.00
N184   N     0.63926   0.70418   0.04259   0.00000  Uiso   1.00
N185   N     0.58253   0.66047   0.46926   0.00000  Uiso   1.00
H186   H     0.65321   0.73684   0.07194   0.00000  Uiso   1.00
C187   C     0.66676   0.64584   0.04530   0.00000  Uiso   1.00
C188   C     0.63096   0.61939   0.49944   0.00000  Uiso   1.00
C189   C     0.58904   0.71087   0.49640   0.00000  Uiso   1.00
I190   I     0.97134   0.21120   0.02943   0.00000  Uiso   1.00
I191   I     0.75419   0.38918   0.39275   0.00000  Uiso   1.00
I192   I     0.86025   0.46813   0.02436   0.00000  Uiso   1.00
N193   N     0.86076   0.29582   0.45737   0.00000  Uiso   1.00
N194   N     0.91748   0.33939   0.03075   0.00000  Uiso   1.00
H195   H     0.84682   0.26317   0.42802   0.00000  Uiso   1.00
C196   C     0.83330   0.35418   0.45471   0.00000  Uiso   1.00
C197   C     0.86910   0.38053   0.00062   0.00000  Uiso   1.00
C198   C     0.91093   0.28903   0.00357   0.00000  Uiso   1.00
I199   I     0.72201   0.28834   0.02965   0.00000  Uiso   1.00
I200   I     0.50416   0.11087   0.39276   0.00000  Uiso   1.00
I201   I     0.61027   0.03184   0.02434   0.00000  Uiso   1.00
N202   N     0.61082   0.20421   0.45743   0.00000  Uiso   1.00
N203   N     0.66748   0.16053   0.03077   0.00000  Uiso   1.00
H204   H     0.59691   0.23685   0.42807   0.00000  Uiso   1.00
C205   C     0.58325   0.14588   0.45474   0.00000  Uiso   1.00
C206   C     0.61903   0.11947   0.00062   0.00000  Uiso   1.00
C207   C     0.66102   0.21090   0.00362   0.00000  Uiso   1.00
I208   I     0.77796   0.71170   0.47034   0.00000  Uiso   1.00
I209   I     0.99587   0.88919   0.10727   0.00000  Uiso   1.00
I210   I     0.88975   0.96816   0.47564   0.00000  Uiso   1.00
N211   N     0.88918   0.79586   0.04260   0.00000  Uiso   1.00
N212   N     0.83253   0.83952   0.46925   0.00000  Uiso   1.00
H213   H     0.90312   0.76321   0.07194   0.00000  Uiso   1.00
C214   C     0.91676   0.85419   0.04529   0.00000  Uiso   1.00
C215   C     0.88098   0.88058   0.49940   0.00000  Uiso   1.00
C216   C     0.83897   0.78915   0.49640   0.00000  Uiso   1.00
I217   I     0.46909   0.62037   0.55236   0.00000  Uiso   1.00
I218   I     0.38584   0.79177   0.69516   0.00000  Uiso   1.00
I219   I     0.00385   0.53902   0.68476   0.00000  Uiso   1.00
N220   N     0.44118   0.66441   0.69193   0.00000  Uiso   1.00
N221   N     0.42400   0.71100   0.61895   0.00000  Uiso   1.00
H222   H     0.44264   0.65753   0.72952   0.00000  Uiso   1.00
C223   C     0.46116   0.62361   0.66112   0.00000  Uiso   1.00
C224   C     0.41955   0.71601   0.66513   0.00000  Uiso   1.00
C225   C     0.45011   0.65333   0.61604   0.00000  Uiso   1.00
I226   I     0.03091   0.37963   0.94762   0.00000  Uiso   1.00
I227   I     0.11415   0.20813   0.80495   0.00000  Uiso   1.00
I228   I     0.49625   0.46102   0.81516   0.00000  Uiso   1.00
N229   N     0.05885   0.33557   0.80805   0.00000  Uiso   1.00
N230   N     0.07601   0.28901   0.88103   0.00000  Uiso   1.00
H231   H     0.05736   0.34243   0.77046   0.00000  Uiso   1.00
C232   C     0.03889   0.37640   0.83884   0.00000  Uiso   1.00
C233   C     0.08045   0.28397   0.83485   0.00000  Uiso   1.00
C234   C     0.04992   0.34669   0.88393   0.00000  Uiso   1.00
I235   I     0.28093   0.12034   0.94761   0.00000  Uiso   1.00
I236   I     0.36414   0.29187   0.80494   0.00000  Uiso   1.00
I237   I     0.24631   0.03893   0.81515   0.00000  Uiso   1.00
N238   N     0.30885   0.16442   0.80804   0.00000  Uiso   1.00
N239   N     0.32594   0.21098   0.88101   0.00000  Uiso   1.00
H240   H     0.30740   0.15757   0.77046   0.00000  Uiso   1.00
C241   C     0.28889   0.12357   0.83883   0.00000  Uiso   1.00
C242   C     0.33041   0.21602   0.83485   0.00000  Uiso   1.00
C243   C     0.29989   0.15328   0.88392   0.00000  Uiso   1.00
I244   I     0.21908   0.87964   0.55238   0.00000  Uiso   1.00
I245   I     0.13587   0.70815   0.69507   0.00000  Uiso   1.00
I246   I     0.25381   0.96099   0.68481   0.00000  Uiso   1.00
N247   N     0.19114   0.83559   0.69194   0.00000  Uiso   1.00
N248   N     0.17402   0.78902   0.61897   0.00000  Uiso   1.00
H249   H     0.19260   0.84247   0.72953   0.00000  Uiso   1.00
C250   C     0.21112   0.87640   0.66115   0.00000  Uiso   1.00
C251   C     0.16955   0.78399   0.66514   0.00000  Uiso   1.00
C252   C     0.20010   0.84669   0.61606   0.00000  Uiso   1.00
I253   I     0.38738   0.55919   0.90992   0.00000  Uiso   1.00
I254   I     0.30418   0.57118   0.75991   0.00000  Uiso   1.00
I255   I     0.08561   0.72250   0.83208   0.00000  Uiso   1.00
N256   N     0.44491   0.64779   0.79093   0.00000  Uiso   1.00
N257   N     0.48900   0.64247   0.87415   0.00000  Uiso   1.00
H258   H     0.02499   0.64943   0.91156   0.00000  Uiso   1.00
C259   C     0.49838   0.66576   0.83191   0.00000  Uiso   1.00
C260   C     0.39893   0.61109   0.80792   0.00000  Uiso   1.00
C261   C     0.42557   0.60714   0.85970   0.00000  Uiso   1.00
I262   I     0.11262   0.44082   0.59007   0.00000  Uiso   1.00
I263   I     0.19581   0.42881   0.74007   0.00000  Uiso   1.00
I264   I     0.41434   0.27754   0.66789   0.00000  Uiso   1.00
N265   N     0.05507   0.35221   0.70904   0.00000  Uiso   1.00
N266   N     0.01099   0.35756   0.62582   0.00000  Uiso   1.00
H267   H     0.47500   0.35057   0.58841   0.00000  Uiso   1.00
C268   C     0.00160   0.33424   0.66806   0.00000  Uiso   1.00
C269   C     0.10104   0.38893   0.69205   0.00000  Uiso   1.00
C270   C     0.07441   0.39290   0.64027   0.00000  Uiso   1.00
I271   I     0.36256   0.05915   0.59007   0.00000  Uiso   1.00
I272   I     0.44588   0.07118   0.74011   0.00000  Uiso   1.00
I273   I     0.16445   0.22253   0.66798   0.00000  Uiso   1.00
N274   N     0.30516   0.14782   0.70907   0.00000  Uiso   1.00
N275   N     0.26101   0.14245   0.62586   0.00000  Uiso   1.00
H276   H     0.22502   0.14942   0.58844   0.00000  Uiso   1.00
C277   C     0.25168   0.16580   0.66810   0.00000  Uiso   1.00
C278   C     0.35109   0.11105   0.69208   0.00000  Uiso   1.00
C279   C     0.32440   0.10707   0.64030   0.00000  Uiso   1.00
I280   I     0.13735   0.94078   0.90993   0.00000  Uiso   1.00
I281   I     0.05410   0.92897   0.76003   0.00000  Uiso   1.00
I282   I     0.33561   0.77757   0.83204   0.00000  Uiso   1.00
N283   N     0.19488   0.85229   0.79093   0.00000  Uiso   1.00
N284   N     0.23901   0.85756   0.87415   0.00000  Uiso   1.00
H285   H     0.27502   0.85059   0.91156   0.00000  Uiso   1.00
C286   C     0.24837   0.83430   0.83189   0.00000  Uiso   1.00
C287   C     0.14890   0.88897   0.80795   0.00000  Uiso   1.00
C288   C     0.17558   0.89289   0.85973   0.00000  Uiso   1.00
I289   I     0.02826   0.78850   0.97049   0.00000  Uiso   1.00
I290   I     0.24588   0.61090   0.60729   0.00000  Uiso   1.00
I291   I     0.13973   0.53162   0.97591   0.00000  Uiso   1.00
N292   N     0.13926   0.70418   0.54259   0.00000  Uiso   1.00
N293   N     0.08253   0.66047   0.96926   0.00000  Uiso   1.00
H294   H     0.15321   0.73684   0.57194   0.00000  Uiso   1.00
C295   C     0.16676   0.64584   0.54530   0.00000  Uiso   1.00
C296   C     0.13096   0.61939   0.99944   0.00000  Uiso   1.00
C297   C     0.08904   0.71087   0.99640   0.00000  Uiso   1.00
I298   I     0.47134   0.21120   0.52943   0.00000  Uiso   1.00
I299   I     0.25419   0.38918   0.89275   0.00000  Uiso   1.00
I300   I     0.36025   0.46813   0.52436   0.00000  Uiso   1.00
N301   N     0.36076   0.29582   0.95737   0.00000  Uiso   1.00
N302   N     0.41748   0.33939   0.53075   0.00000  Uiso   1.00
H303   H     0.34682   0.26317   0.92802   0.00000  Uiso   1.00
C304   C     0.33330   0.35418   0.95471   0.00000  Uiso   1.00
C305   C     0.36910   0.38053   0.50062   0.00000  Uiso   1.00
C306   C     0.41093   0.28903   0.50357   0.00000  Uiso   1.00
I307   I     0.22201   0.28834   0.52965   0.00000  Uiso   1.00
I308   I     0.00416   0.11087   0.89276   0.00000  Uiso   1.00
I309   I     0.11027   0.03184   0.52434   0.00000  Uiso   1.00
N310   N     0.11082   0.20421   0.95743   0.00000  Uiso   1.00
N311   N     0.16748   0.16053   0.53077   0.00000  Uiso   1.00
H312   H     0.09691   0.23685   0.92807   0.00000  Uiso   1.00
C313   C     0.08325   0.14588   0.95474   0.00000  Uiso   1.00
C314   C     0.11903   0.11947   0.50062   0.00000  Uiso   1.00
C315   C     0.16102   0.21090   0.50362   0.00000  Uiso   1.00
I316   I     0.27796   0.71170   0.97034   0.00000  Uiso   1.00
I317   I     0.49587   0.88919   0.60727   0.00000  Uiso   1.00
I318   I     0.38975   0.96816   0.97564   0.00000  Uiso   1.00
N319   N     0.38918   0.79586   0.54260   0.00000  Uiso   1.00
N320   N     0.33253   0.83952   0.96925   0.00000  Uiso   1.00
H321   H     0.40312   0.76321   0.57194   0.00000  Uiso   1.00
C322   C     0.41676   0.85419   0.54529   0.00000  Uiso   1.00
C323   C     0.38098   0.88058   0.99940   0.00000  Uiso   1.00
C324   C     0.33897   0.78915   0.99640   0.00000  Uiso   1.00
I325   I     0.96909   0.62037   0.55236   0.00000  Uiso   1.00
I326   I     0.88584   0.79177   0.69516   0.00000  Uiso   1.00
I327   I     0.50385   0.53902   0.68476   0.00000  Uiso   1.00
N328   N     0.94118   0.66441   0.69193   0.00000  Uiso   1.00
N329   N     0.92400   0.71100   0.61895   0.00000  Uiso   1.00
H330   H     0.94264   0.65753   0.72952   0.00000  Uiso   1.00
C331   C     0.96116   0.62361   0.66112   0.00000  Uiso   1.00
C332   C     0.91955   0.71601   0.66513   0.00000  Uiso   1.00
C333   C     0.95011   0.65333   0.61604   0.00000  Uiso   1.00
I334   I     0.53091   0.37963   0.94762   0.00000  Uiso   1.00
I335   I     0.61415   0.20813   0.80495   0.00000  Uiso   1.00
I336   I     0.99625   0.46102   0.81516   0.00000  Uiso   1.00
N337   N     0.55885   0.33557   0.80805   0.00000  Uiso   1.00
N338   N     0.57601   0.28901   0.88103   0.00000  Uiso   1.00
H339   H     0.55736   0.34243   0.77046   0.00000  Uiso   1.00
C340   C     0.53889   0.37640   0.83884   0.00000  Uiso   1.00
C341   C     0.58045   0.28397   0.83485   0.00000  Uiso   1.00
C342   C     0.54992   0.34669   0.88393   0.00000  Uiso   1.00
I343   I     0.78093   0.12034   0.94761   0.00000  Uiso   1.00
I344   I     0.86414   0.29187   0.80494   0.00000  Uiso   1.00
I345   I     0.74631   0.03893   0.81515   0.00000  Uiso   1.00
N346   N     0.80885   0.16442   0.80804   0.00000  Uiso   1.00
N347   N     0.82594   0.21098   0.88101   0.00000  Uiso   1.00
H348   H     0.80740   0.15757   0.77046   0.00000  Uiso   1.00
C349   C     0.78889   0.12357   0.83883   0.00000  Uiso   1.00
C350   C     0.83041   0.21602   0.83485   0.00000  Uiso   1.00
C351   C     0.79989   0.15328   0.88392   0.00000  Uiso   1.00
I352   I     0.71908   0.87964   0.55238   0.00000  Uiso   1.00
I353   I     0.63587   0.70815   0.69507   0.00000  Uiso   1.00
I354   I     0.75381   0.96099   0.68481   0.00000  Uiso   1.00
N355   N     0.69114   0.83559   0.69194   0.00000  Uiso   1.00
N356   N     0.67402   0.78902   0.61897   0.00000  Uiso   1.00
H357   H     0.69260   0.84247   0.72953   0.00000  Uiso   1.00
C358   C     0.71112   0.87640   0.66115   0.00000  Uiso   1.00
C359   C     0.66955   0.78399   0.66514   0.00000  Uiso   1.00
C360   C     0.70010   0.84669   0.61606   0.00000  Uiso   1.00
I361   I     0.88738   0.55919   0.90992   0.00000  Uiso   1.00
I362   I     0.80418   0.57118   0.75991   0.00000  Uiso   1.00
I363   I     0.58561   0.72250   0.83208   0.00000  Uiso   1.00
N364   N     0.94491   0.64779   0.79093   0.00000  Uiso   1.00
N365   N     0.98900   0.64247   0.87415   0.00000  Uiso   1.00
H366   H     0.52499   0.64943   0.91156   0.00000  Uiso   1.00
C367   C     0.99838   0.66576   0.83191   0.00000  Uiso   1.00
C368   C     0.89893   0.61109   0.80792   0.00000  Uiso   1.00
C369   C     0.92557   0.60714   0.85970   0.00000  Uiso   1.00
I370   I     0.61262   0.44082   0.59007   0.00000  Uiso   1.00
I371   I     0.69581   0.42881   0.74007   0.00000  Uiso   1.00
I372   I     0.91434   0.27754   0.66789   0.00000  Uiso   1.00
N373   N     0.55507   0.35221   0.70904   0.00000  Uiso   1.00
N374   N     0.51099   0.35756   0.62582   0.00000  Uiso   1.00
H375   H     0.97500   0.35057   0.58841   0.00000  Uiso   1.00
C376   C     0.50160   0.33424   0.66806   0.00000  Uiso   1.00
C377   C     0.60104   0.38893   0.69205   0.00000  Uiso   1.00
C378   C     0.57441   0.39290   0.64027   0.00000  Uiso   1.00
I379   I     0.86256   0.05915   0.59007   0.00000  Uiso   1.00
I380   I     0.94588   0.07118   0.74011   0.00000  Uiso   1.00
I381   I     0.66445   0.22253   0.66798   0.00000  Uiso   1.00
N382   N     0.80516   0.14782   0.70907   0.00000  Uiso   1.00
N383   N     0.76101   0.14245   0.62586   0.00000  Uiso   1.00
H384   H     0.72502   0.14942   0.58844   0.00000  Uiso   1.00
C385   C     0.75168   0.16580   0.66810   0.00000  Uiso   1.00
C386   C     0.85109   0.11105   0.69208   0.00000  Uiso   1.00
C387   C     0.82440   0.10707   0.64030   0.00000  Uiso   1.00
I388   I     0.63735   0.94078   0.90993   0.00000  Uiso   1.00
I389   I     0.55410   0.92897   0.76003   0.00000  Uiso   1.00
I390   I     0.83561   0.77757   0.83204   0.00000  Uiso   1.00
N391   N     0.69488   0.85229   0.79093   0.00000  Uiso   1.00
N392   N     0.73901   0.85756   0.87415   0.00000  Uiso   1.00
H393   H     0.77502   0.85059   0.91156   0.00000  Uiso   1.00
C394   C     0.74837   0.83430   0.83189   0.00000  Uiso   1.00
C395   C     0.64890   0.88897   0.80795   0.00000  Uiso   1.00
C396   C     0.67558   0.89289   0.85973   0.00000  Uiso   1.00
I397   I     0.52826   0.78850   0.97049   0.00000  Uiso   1.00
I398   I     0.74588   0.61090   0.60729   0.00000  Uiso   1.00
I399   I     0.63973   0.53162   0.97591   0.00000  Uiso   1.00
N400   N     0.63926   0.70418   0.54259   0.00000  Uiso   1.00
N401   N     0.58253   0.66047   0.96926   0.00000  Uiso   1.00
H402   H     0.65321   0.73684   0.57194   0.00000  Uiso   1.00
C403   C     0.66676   0.64584   0.54530   0.00000  Uiso   1.00
C404   C     0.63096   0.61939   0.99944   0.00000  Uiso   1.00
C405   C     0.58904   0.71087   0.99640   0.00000  Uiso   1.00
I406   I     0.97134   0.21120   0.52943   0.00000  Uiso   1.00
I407   I     0.75419   0.38918   0.89275   0.00000  Uiso   1.00
I408   I     0.86025   0.46813   0.52436   0.00000  Uiso   1.00
N409   N     0.86076   0.29582   0.95737   0.00000  Uiso   1.00
N410   N     0.91748   0.33939   0.53075   0.00000  Uiso   1.00
H411   H     0.84682   0.26317   0.92802   0.00000  Uiso   1.00
C412   C     0.83330   0.35418   0.95471   0.00000  Uiso   1.00
C413   C     0.86910   0.38053   0.50062   0.00000  Uiso   1.00
C414   C     0.91093   0.28903   0.50357   0.00000  Uiso   1.00
I415   I     0.72201   0.28834   0.52965   0.00000  Uiso   1.00
I416   I     0.50416   0.11087   0.89276   0.00000  Uiso   1.00
I417   I     0.61027   0.03184   0.52434   0.00000  Uiso   1.00
N418   N     0.61082   0.20421   0.95743   0.00000  Uiso   1.00
N419   N     0.66748   0.16053   0.53077   0.00000  Uiso   1.00
H420   H     0.59691   0.23685   0.92807   0.00000  Uiso   1.00
C421   C     0.58325   0.14588   0.95474   0.00000  Uiso   1.00
C422   C     0.61903   0.11947   0.50062   0.00000  Uiso   1.00
C423   C     0.66102   0.21090   0.50362   0.00000  Uiso   1.00
I424   I     0.77796   0.71170   0.97034   0.00000  Uiso   1.00
I425   I     0.99587   0.88919   0.60727   0.00000  Uiso   1.00
I426   I     0.88975   0.96816   0.97564   0.00000  Uiso   1.00
N427   N     0.88918   0.79586   0.54260   0.00000  Uiso   1.00
N428   N     0.83253   0.83952   0.96925   0.00000  Uiso   1.00
H429   H     0.90312   0.76321   0.57194   0.00000  Uiso   1.00
C430   C     0.91676   0.85419   0.54529   0.00000  Uiso   1.00
C431   C     0.88098   0.88058   0.99940   0.00000  Uiso   1.00
C432   C     0.83897   0.78915   0.99640   0.00000  Uiso   1.00

